11
pyridine; global coordinates
H       -2.05032200      -0.10843000       0.00000000
H       -2.14711300      -2.58610300       0.00000000
H        0.00000000      -3.87040200       0.00000000
H        2.14711300      -2.58610300       0.00000000
H        2.05032200      -0.10843000       0.00000000
N        0.00000000       0.00000000       0.00000000
C       -1.13441000      -0.69239200       0.00000000
C       -1.19051300      -2.07863900       0.00000000
C        0.00000000      -2.78675600       0.00000000
C        1.19051300      -2.07863900       0.00000000
C        1.13441000      -0.69239200       0.00000000
